data_ch4
_audit_creation_date              2007-10-11
_audit_creation_method            'Materials Studio'
_symmetry_space_group_name_H-M    'P1'
_symmetry_Int_Tables_number       1
_symmetry_cell_setting            triclinic
loop_
_symmetry_equiv_pos_as_xyz
  x,y,z
_cell_length_a                    9.9479
_cell_length_b                    9.9479
_cell_length_c                   10.0000
_cell_angle_alpha                 90.0000
_cell_angle_beta                  90.0000
_cell_angle_gamma                 90.0000
loop_
_atom_site_label
_atom_site_type_symbol
_atom_site_fract_x
_atom_site_fract_y
_atom_site_fract_z
_atom_site_Uiso_or_equiv
_atom_site_adp_type
_atom_site_occupancy
A1     C     0.00000   0.00000   0.00198   0.00000  Uiso   1.00
A2     H     0.06340   0.06340   0.06513   0.00000  Uiso   1.00
A3     H     0.93657   0.93657   0.06515   0.00000  Uiso   1.00
A4     H     0.93647   0.06352   0.93887   0.00000  Uiso   1.00
A5     H     0.06352   0.93647   0.93887   0.00000  Uiso   1.00
