data_FeCS-gga
_audit_creation_date              2007-10-11
_audit_creation_method            'Materials Studio'
_symmetry_space_group_name_H-M    'P1'
_symmetry_Int_Tables_number       1
_symmetry_cell_setting            triclinic
loop_
_symmetry_equiv_pos_as_xyz
  x,y,z
_cell_length_a                   14.8008
_cell_length_b                   14.7985
_cell_length_c                   14.9680
_cell_angle_alpha                 90.0000
_cell_angle_beta                  90.0000
_cell_angle_gamma                120.0015
loop_
_atom_site_label
_atom_site_type_symbol
_atom_site_fract_x
_atom_site_fract_y
_atom_site_fract_z
_atom_site_Uiso_or_equiv
_atom_site_adp_type
_atom_site_occupancy
A1     Fe    0.50000   0.50000   0.50000   0.00000  Uiso   1.00
A2     Fe    0.50000   0.00000   0.50000   0.00000  Uiso   1.00
A3     Fe    0.00000   0.50000   0.50000   0.00000  Uiso   1.00
A4     S     0.54471   0.88068   0.50000   0.00000  Uiso   1.00
A5     S     0.45529   0.11932   0.50000   0.00000  Uiso   1.00
A6     S     0.11930   0.66406   0.50000   0.00000  Uiso   1.00
A7     S     0.88070   0.33594   0.50000   0.00000  Uiso   1.00
A8     S     0.33594   0.45522   0.50000   0.00000  Uiso   1.00
A9     S     0.66406   0.54478   0.50000   0.00000  Uiso   1.00
A10    S     0.88071   0.54477   0.50000   0.00000  Uiso   1.00
A11    S     0.11929   0.45523   0.50000   0.00000  Uiso   1.00
A12    S     0.66405   0.11928   0.50000   0.00000  Uiso   1.00
A13    S     0.33595   0.88072   0.50000   0.00000  Uiso   1.00
A14    S     0.45529   0.33595   0.50000   0.00000  Uiso   1.00
A15    S     0.54471   0.66405   0.50000   0.00000  Uiso   1.00
A16    C     0.23696   0.66642   0.50000   0.00000  Uiso   1.00
A17    C     0.76304   0.33358   0.50000   0.00000  Uiso   1.00
A18    C     0.33354   0.57052   0.50000   0.00000  Uiso   1.00
A19    C     0.66646   0.42949   0.50000   0.00000  Uiso   1.00
A20    C     0.42942   0.76300   0.50000   0.00000  Uiso   1.00
A21    C     0.57058   0.23700   0.50000   0.00000  Uiso   1.00
A22    C     0.66646   0.23698   0.50000   0.00000  Uiso   1.00
A23    C     0.33354   0.76302   0.50000   0.00000  Uiso   1.00
A24    C     0.57058   0.33359   0.50000   0.00000  Uiso   1.00
A25    C     0.42942   0.66641   0.50000   0.00000  Uiso   1.00
A26    C     0.76304   0.42947   0.50000   0.00000  Uiso   1.00
A27    C     0.23696   0.57053   0.50000   0.00000  Uiso   1.00
